data_T2-gamma_240K
_symmetry_cell_setting           triclinic
_symmetry_space_group_name_H-M   'P 1'
_symmetry_Int_Tables_number      1
_space_group_name_Hall           'P 1'
loop_
_symmetry_equiv_pos_site_id
_symmetry_equiv_pos_as_xyz
1 x,y,z
_cell_length_a                   23.220900
_cell_length_b                   23.229878
_cell_length_c                   7.283333
_cell_angle_alpha                90.000000
_cell_angle_beta                 90.000000
_cell_angle_gamma                120.004921
_cell_volume                     3402.24
loop_
_atom_site_label
_atom_site_type_symbol
_atom_site_fract_x
_atom_site_fract_y
_atom_site_fract_z
O1 O 0.510960 0.489040 0.750000
N1 N 0.459890 0.540110 0.599800
C1 C 0.333300 0.666700 0.573600
C2 C 0.368320 0.631680 0.653110
C3 C 0.397560 0.602440 0.554660
C4 C 0.426820 0.573180 0.653790
C5 C 0.480020 0.519980 0.750000
H1 H 0.397700 0.602300 0.416000
H2 H 0.333300 0.666700 0.432000
H3 H 0.468600 0.531400 0.482000
O2 O 0.510960 1.021920 0.750000
N2 N 0.459890 0.919780 0.599800
C6 C 0.368320 0.736640 0.653110
C7 C 0.397560 0.795120 0.554660
C8 C 0.426820 0.853640 0.653790
C9 C 0.480020 0.960040 0.750000
H4 H 0.397700 0.795400 0.416000
H5 H 0.468600 0.937200 0.482000
O3 O -0.021920 0.489040 0.750000
N3 N 0.080220 0.540110 0.599800
C10 C 0.263360 0.631680 0.653110
C11 C 0.204880 0.602440 0.554660
C12 C 0.146360 0.573180 0.653790
C13 C 0.039960 0.519980 0.750000
H6 H 0.204600 0.602300 0.416000
H7 H 0.062800 0.531400 0.482000
N4 N 0.080220 0.540110 0.900200
C14 C 0.333400 0.666700 0.926400
C15 C 0.263360 0.631680 0.846890
C16 C 0.204880 0.602440 0.945340
C17 C 0.146360 0.573180 0.846210
H8 H 0.204600 0.602300 1.084000
H9 H 0.333400 0.666700 1.068000
H10 H 0.062800 0.531400 1.018000
N5 N 0.459890 0.540110 0.900200
C18 C 0.368320 0.631680 0.846890
C19 C 0.397560 0.602440 0.945340
C20 C 0.426820 0.573180 0.846210
H11 H 0.397700 0.602300 1.084000
H12 H 0.468600 0.531400 1.018000
N6 N 0.459890 0.919780 0.900200
C21 C 0.368320 0.736640 0.846890
C22 C 0.397560 0.795120 0.945340
C23 C 0.426820 0.853640 0.846210
H13 H 0.397700 0.795400 1.084000
H14 H 0.468600 0.937200 1.018000
O4 O 0.489040 0.510960 0.250000
N7 N 0.540110 0.459890 0.099800
C24 C 0.666700 0.333300 0.073600
C25 C 0.631680 0.368320 0.153110
C26 C 0.602440 0.397560 0.054660
C27 C 0.573180 0.426820 0.153790
C28 C 0.519980 0.480020 0.250000
H15 H 0.602300 0.397700 -0.084000
H16 H 0.666700 0.333300 -0.068000
H17 H 0.531400 0.468600 -0.018000
O5 O 0.489040 -0.021920 0.250000
N8 N 0.540110 0.080220 0.099800
C29 C 0.631680 0.263360 0.153110
C30 C 0.602440 0.204880 0.054660
C31 C 0.573180 0.146360 0.153790
C32 C 0.519980 0.039960 0.250000
H18 H 0.602300 0.204600 -0.084000
H19 H 0.531400 0.062800 -0.018000
O6 O 1.021920 0.510960 0.250000
N9 N 0.919780 0.459890 0.099800
C33 C 0.736640 0.368320 0.153110
C34 C 0.795120 0.397560 0.054660
C35 C 0.853640 0.426820 0.153790
C36 C 0.960040 0.480020 0.250000
H20 H 0.795400 0.397700 -0.084000
H21 H 0.937200 0.468600 -0.018000
N10 N 0.919780 0.459890 0.400200
C37 C 0.666600 0.333300 0.426400
C38 C 0.736640 0.368320 0.346890
C39 C 0.795120 0.397560 0.445340
C40 C 0.853640 0.426820 0.346210
H22 H 0.795400 0.397700 0.584000
H23 H 0.666600 0.333300 0.568000
H24 H 0.937200 0.468600 0.518000
N11 N 0.540110 0.459890 0.400200
C41 C 0.631680 0.368320 0.346890
C42 C 0.602440 0.397560 0.445340
C43 C 0.573180 0.426820 0.346210
H25 H 0.602300 0.397700 0.584000
H26 H 0.531400 0.468600 0.518000
N12 N 0.540110 0.080220 0.400200
C44 C 0.631680 0.263360 0.346890
C45 C 0.602440 0.204880 0.445340
C46 C 0.573180 0.146360 0.346210
H27 H 0.602300 0.204600 0.584000
H28 H 0.531400 0.062800 0.518000
loop_
_geom_bond_atom_site_label_1
_geom_bond_atom_site_label_2
_geom_bond_site_symmetry_1
_geom_bond_site_symmetry_2
O1 C5 1_555 1_555
N1 C4 1_555 1_555
N1 C5 1_555 1_555
N1 H3 1_555 1_555
C1 C2 1_555 1_555
C1 H2 1_555 1_555
C1 C6 1_555 1_555
C1 C10 1_555 1_555
C2 C3 1_555 1_555
C2 C18 1_555 1_555
C3 C4 1_555 1_555
C3 H1 1_555 1_555
C4 C20 1_555 1_555
C5 N5 1_555 1_555
O2 C9 1_555 1_555
N2 C8 1_555 1_555
N2 C9 1_555 1_555
N2 H5 1_555 1_555
C6 C7 1_555 1_555
C6 C21 1_555 1_555
C7 C8 1_555 1_555
C7 H4 1_555 1_555
C8 C23 1_555 1_555
C9 N6 1_555 1_555
O3 C13 1_555 1_555
N3 C12 1_555 1_555
N3 C13 1_555 1_555
N3 H7 1_555 1_555
C10 C11 1_555 1_555
C10 C15 1_555 1_555
C11 C12 1_555 1_555
C11 H6 1_555 1_555
C12 C17 1_555 1_555
C13 N4 1_555 1_555
N4 C17 1_555 1_555
N4 H10 1_555 1_555
C14 C15 1_555 1_555
C14 H9 1_555 1_555
C14 C18 1_555 1_555
C14 C21 1_555 1_555
C15 C16 1_555 1_555
C16 C17 1_555 1_555
C16 H8 1_555 1_555
N5 C20 1_555 1_555
N5 H12 1_555 1_555
C18 C19 1_555 1_555
C19 C20 1_555 1_555
C19 H11 1_555 1_555
N6 C23 1_555 1_555
N6 H14 1_555 1_555
C21 C22 1_555 1_555
C22 C23 1_555 1_555
C22 H13 1_555 1_555
O4 C28 1_555 1_555
N7 C27 1_555 1_555
N7 C28 1_555 1_555
N7 H17 1_555 1_555
C24 C25 1_555 1_555
C24 H16 1_555 1_555
C24 C29 1_555 1_555
C24 C33 1_555 1_555
C25 C26 1_555 1_555
C25 C41 1_555 1_555
C26 C27 1_555 1_555
C26 H15 1_555 1_555
C27 C43 1_555 1_555
C28 N11 1_555 1_555
O5 C32 1_555 1_555
N8 C31 1_555 1_555
N8 C32 1_555 1_555
N8 H19 1_555 1_555
C29 C30 1_555 1_555
C29 C44 1_555 1_555
C30 C31 1_555 1_555
C30 H18 1_555 1_555
C31 C46 1_555 1_555
C32 N12 1_555 1_555
O6 C36 1_555 1_555
N9 C35 1_555 1_555
N9 C36 1_555 1_555
N9 H21 1_555 1_555
C33 C34 1_555 1_555
C33 C38 1_555 1_555
C34 C35 1_555 1_555
C34 H20 1_555 1_555
C35 C40 1_555 1_555
C36 N10 1_555 1_555
N10 C40 1_555 1_555
N10 H24 1_555 1_555
C37 C38 1_555 1_555
C37 H23 1_555 1_555
C37 C41 1_555 1_555
C37 C44 1_555 1_555
C38 C39 1_555 1_555
C39 C40 1_555 1_555
C39 H22 1_555 1_555
N11 C43 1_555 1_555
N11 H26 1_555 1_555
C41 C42 1_555 1_555
C42 C43 1_555 1_555
C42 H25 1_555 1_555
N12 C46 1_555 1_555
N12 H28 1_555 1_555
C44 C45 1_555 1_555
C45 C46 1_555 1_555
C45 H27 1_555 1_555